1659030584.788804s 1 https://api.dandiarchive.org/api/zarr/98f45e9d-e67b-431c-9a7a-eef6fd2cd83d.zarr/0/0/0/11/12/81
1659030584.762092s 1 https://dandiarchive.s3.amazonaws.com/zarr/98f45e9d-e67b-431c-9a7a-eef6fd2cd83d/0/0/0/11/12/81?versionId=MT3DTdkdMgFP2Mb36.Ao7xUuVC9qTb8Z
